# generated using pymatgen
data_As
_symmetry_space_group_name_H-M   'P 1'
_cell_length_a   3.82788574
_cell_length_b   3.82788574
_cell_length_c   3.82788574
_cell_angle_alpha   90.00000000
_cell_angle_beta   90.00000000
_cell_angle_gamma   90.00000000
_symmetry_Int_Tables_number   1
_chemical_formula_structural   As
_chemical_formula_sum   As6
_cell_volume   56.0888967512
_cell_formula_units_Z   6
loop_
 _symmetry_equiv_pos_site_id
 _symmetry_equiv_pos_as_xyz
  1  'x, y, z'
loop_
 _atom_site_type_symbol
 _atom_site_label
 _atom_site_symmetry_multiplicity
 _atom_site_fract_x
 _atom_site_fract_y
 _atom_site_fract_z
 _atom_site_occupancy
  As  As1  1  0.333333  0.666667  0.893986  1
  As  As2  1  0.666667  0.333333  0.106014  1
  As  As3  1  0.000000  0.000000  0.227320  1
  As  As4  1  0.333333  0.666667  0.439347  1
  As  As5  1  0.666667  0.333333  0.560653  1
  As  As6  1  0.000000  0.000000  0.772680  1
