# generated using pymatgen
data_Mn
_symmetry_space_group_name_H-M   'P 1'
_cell_length_a   6.02812081
_cell_length_b   6.02812081
_cell_length_c   6.02812081
_cell_angle_alpha   90.00000000
_cell_angle_beta   90.00000000
_cell_angle_gamma   90.00000000
_symmetry_Int_Tables_number   1
_chemical_formula_structural   Mn
_chemical_formula_sum   Mn20
_cell_volume   219.051303757
_cell_formula_units_Z   20
loop_
 _symmetry_equiv_pos_site_id
 _symmetry_equiv_pos_as_xyz
  1  'x, y, z'
loop_
 _atom_site_type_symbol
 _atom_site_label
 _atom_site_symmetry_multiplicity
 _atom_site_fract_x
 _atom_site_fract_y
 _atom_site_fract_z
 _atom_site_occupancy
  Mn  Mn1  1  0.053358  0.053358  0.053358  1
  Mn  Mn2  1  0.303358  0.196642  0.803358  1
  Mn  Mn3  1  0.803358  0.303358  0.196642  1
  Mn  Mn4  1  0.196642  0.803358  0.303358  1
  Mn  Mn5  1  0.446642  0.946642  0.553358  1
  Mn  Mn6  1  0.553358  0.446642  0.946642  1
  Mn  Mn7  1  0.946642  0.553358  0.446642  1
  Mn  Mn8  1  0.696642  0.696642  0.696642  1
  Mn  Mn9  1  0.125000  0.197057  0.447057  1
  Mn  Mn10  1  0.375000  0.802943  0.947057  1
  Mn  Mn11  1  0.875000  0.697057  0.052943  1
  Mn  Mn12  1  0.197057  0.447057  0.125000  1
  Mn  Mn13  1  0.802943  0.947057  0.375000  1
  Mn  Mn14  1  0.052943  0.875000  0.697057  1
  Mn  Mn15  1  0.447057  0.125000  0.197057  1
  Mn  Mn16  1  0.302943  0.552943  0.625000  1
  Mn  Mn17  1  0.947057  0.375000  0.802943  1
  Mn  Mn18  1  0.552943  0.625000  0.302943  1
  Mn  Mn19  1  0.697057  0.052943  0.875000  1
  Mn  Mn20  1  0.625000  0.302943  0.552943  1
