# generated using pymatgen
data_Sm
_symmetry_space_group_name_H-M   'P 1'
_cell_length_a   3.66080900
_cell_length_b   3.66080900
_cell_length_c   26.39205163
_cell_angle_alpha   90.00000000
_cell_angle_beta   90.00000000
_cell_angle_gamma   120.00000000
_symmetry_Int_Tables_number   1
_chemical_formula_structural   Sm
_chemical_formula_sum   Sm9
_cell_volume   306.307707605
_cell_formula_units_Z   9
loop_
 _symmetry_equiv_pos_site_id
 _symmetry_equiv_pos_as_xyz
  1  'x, y, z'
loop_
 _atom_site_type_symbol
 _atom_site_label
 _atom_site_symmetry_multiplicity
 _atom_site_fract_x
 _atom_site_fract_y
 _atom_site_fract_z
 _atom_site_occupancy
  Sm  Sm1  1  0.000000  0.000000  0.000000  1
  Sm  Sm2  1  0.333333  0.666667  0.889068  1
  Sm  Sm3  1  0.666667  0.333333  0.110932  1
  Sm  Sm4  1  0.666667  0.333333  0.333333  1
  Sm  Sm5  1  0.000000  0.000000  0.222401  1
  Sm  Sm6  1  0.333333  0.666667  0.444266  1
  Sm  Sm7  1  0.333333  0.666667  0.666667  1
  Sm  Sm8  1  0.666667  0.333333  0.555734  1
  Sm  Sm9  1  0.000000  0.000000  0.777599  1
