# generated using pymatgen
data_Sn
_symmetry_space_group_name_H-M   'P 1'
_cell_length_a   4.49301037
_cell_length_b   4.49301037
_cell_length_c   4.49301037
_cell_angle_alpha   97.43511320
_cell_angle_beta   97.43511320
_cell_angle_gamma   137.83317286
_symmetry_Int_Tables_number   1
_chemical_formula_structural   Sn
_chemical_formula_sum   Sn2
_cell_volume   56.8109383477
_cell_formula_units_Z   2
loop_
 _symmetry_equiv_pos_site_id
 _symmetry_equiv_pos_as_xyz
  1  'x, y, z'
loop_
 _atom_site_type_symbol
 _atom_site_label
 _atom_site_symmetry_multiplicity
 _atom_site_fract_x
 _atom_site_fract_y
 _atom_site_fract_z
 _atom_site_occupancy
  Sn  Sn1  1  0.500000  0.500000  0.000000  1
  Sn  Sn2  1  0.750000  0.250000  0.500000  1
