# generated using pymatgen
data_CaF2
_symmetry_space_group_name_H-M   'P 1'
_cell_length_a   3.90043757
_cell_length_b   3.90043757
_cell_length_c   3.90043757
_cell_angle_alpha   59.99999993
_cell_angle_beta   59.99999993
_cell_angle_gamma   59.99999996
_symmetry_Int_Tables_number   1
_chemical_formula_structural   CaF2
_chemical_formula_sum   'Ca1 F2'
_cell_volume   41.958987038
_cell_formula_units_Z   1
loop_
 _symmetry_equiv_pos_site_id
 _symmetry_equiv_pos_as_xyz
  1  'x, y, z'
loop_
 _atom_site_type_symbol
 _atom_site_label
 _atom_site_symmetry_multiplicity
 _atom_site_fract_x
 _atom_site_fract_y
 _atom_site_fract_z
 _atom_site_occupancy
  F  F1  1  0.750000  0.750000  0.750000  1
  F  F2  1  0.250000  0.250000  0.250000  1
  Ca  Ca3  1  0.000000  0.000000  0.000000  1
