# generated using pymatgen
data_Zn8Cu5
_symmetry_space_group_name_H-M   'P 1'
_cell_length_a   7.67573223
_cell_length_b   7.67573223
_cell_length_c   7.67573223
_cell_angle_alpha   109.47122063
_cell_angle_beta   109.47122063
_cell_angle_gamma   109.47122063
_symmetry_Int_Tables_number   1
_chemical_formula_structural   Zn8Cu5
_chemical_formula_sum   'Zn16 Cu10'
_cell_volume   348.126879172
_cell_formula_units_Z   2
loop_
 _symmetry_equiv_pos_site_id
 _symmetry_equiv_pos_as_xyz
  1  'x, y, z'
loop_
 _atom_site_type_symbol
 _atom_site_label
 _atom_site_symmetry_multiplicity
 _atom_site_fract_x
 _atom_site_fract_y
 _atom_site_fract_z
 _atom_site_occupancy
  Zn  Zn1  1  1.000000  1.000000  0.219806  1
  Zn  Zn2  1  0.219806  1.000000  0.000000  1
  Zn  Zn3  1  0.780194  0.780194  0.780194  1
  Zn  Zn4  1  1.000000  0.219806  1.000000  1
  Zn  Zn5  1  1.000000  0.719322  0.347305  1
  Zn  Zn6  1  0.372017  0.652695  0.652695  1
  Zn  Zn7  1  0.627983  0.280678  0.280678  1
  Zn  Zn8  1  0.719322  0.347305  0.000000  1
  Zn  Zn9  1  0.652695  0.652695  0.372017  1
  Zn  Zn10  1  0.347305  1.000000  0.719322  1
  Zn  Zn11  1  0.280678  0.627983  0.280678  1
  Zn  Zn12  1  0.652695  0.372017  0.652695  1
  Zn  Zn13  1  0.347305  0.719322  0.000000  1
  Zn  Zn14  1  0.280678  0.280678  0.627983  1
  Zn  Zn15  1  0.719322  1.000000  0.347305  1
  Zn  Zn16  1  1.000000  0.347305  0.719322  1
  Cu  Cu17  1  1.000000  1.000000  0.654893  1
  Cu  Cu18  1  0.345107  0.345107  0.345107  1
  Cu  Cu19  1  0.654893  1.000000  1.000000  1
  Cu  Cu20  1  1.000000  0.654893  0.000000  1
  Cu  Cu21  1  0.644155  1.000000  0.644155  1
  Cu  Cu22  1  1.000000  0.644155  0.644155  1
  Cu  Cu23  1  1.000000  0.355845  0.355845  1
  Cu  Cu24  1  0.355845  1.000000  0.355845  1
  Cu  Cu25  1  0.644155  0.644155  0.000000  1
  Cu  Cu26  1  0.355845  0.355845  0.000000  1
