# generated using pymatgen
data_MgAl2O4
_symmetry_space_group_name_H-M   'P 1'
_cell_length_a   5.77758078
_cell_length_b   5.77758078
_cell_length_c   5.77758078
_cell_angle_alpha   59.99999999
_cell_angle_beta   60.00000001
_cell_angle_gamma   59.99999998
_symmetry_Int_Tables_number   1
_chemical_formula_structural   MgAl2O4
_chemical_formula_sum   'Mg2 Al4 O8'
_cell_volume   136.371331569
_cell_formula_units_Z   2
loop_
 _symmetry_equiv_pos_site_id
 _symmetry_equiv_pos_as_xyz
  1  'x, y, z'
loop_
 _atom_site_type_symbol
 _atom_site_label
 _atom_site_symmetry_multiplicity
 _atom_site_fract_x
 _atom_site_fract_y
 _atom_site_fract_z
 _atom_site_occupancy
  O  O1  1  0.736371  0.736371  0.736371  1
  O  O2  1  0.263629  0.263629  0.709114  1
  O  O3  1  0.263629  0.709114  0.263629  1
  O  O4  1  0.709114  0.263629  0.263629  1
  O  O5  1  0.736371  0.290886  0.736371  1
  O  O6  1  0.290886  0.736371  0.736371  1
  O  O7  1  0.263629  0.263629  0.263629  1
  O  O8  1  0.736371  0.736371  0.290886  1
  Mg  Mg9  1  0.125000  0.125000  0.125000  1
  Mg  Mg10  1  0.875000  0.875000  0.875000  1
  Al  Al11  1  0.500000  0.500000  0.000000  1
  Al  Al12  1  0.500000  0.500000  0.500000  1
  Al  Al13  1  0.000000  0.500000  0.500000  1
  Al  Al14  1  0.500000  0.000000  0.500000  1
