# generated using pymatgen
data_TiO2
_symmetry_space_group_name_H-M   'P 1'
_cell_length_a   3.80613435
_cell_length_b   3.80613435
_cell_length_c   5.55734663
_cell_angle_alpha   110.02570505
_cell_angle_beta   110.02570498
_cell_angle_gamma   90.00000008
_symmetry_Int_Tables_number   1
_chemical_formula_structural   TiO2
_chemical_formula_sum   'Ti2 O4'
_cell_volume   70.4367090692
_cell_formula_units_Z   2
loop_
 _symmetry_equiv_pos_site_id
 _symmetry_equiv_pos_as_xyz
  1  'x, y, z'
loop_
 _atom_site_type_symbol
 _atom_site_label
 _atom_site_symmetry_multiplicity
 _atom_site_fract_x
 _atom_site_fract_y
 _atom_site_fract_z
 _atom_site_occupancy
  O  O1  1  0.331413  0.581413  0.162826  1
  O  O2  1  0.081413  0.831413  0.662826  1
  O  O3  1  0.918587  0.168587  0.337174  1
  O  O4  1  0.668587  0.418587  0.837174  1
  Ti  Ti5  1  0.875000  0.625000  0.250000  1
  Ti  Ti6  1  0.125000  0.375000  0.750000  1
