# generated using pymatgen
data_Fe(CO)5
_symmetry_space_group_name_H-M   C2/c
_cell_length_a   11.88277600
_cell_length_b   6.84770800
_cell_length_c   9.41567283
_cell_angle_alpha   90.00000000
_cell_angle_beta   107.99123506
_cell_angle_gamma   90.00000000
_symmetry_Int_Tables_number   15
_chemical_formula_structural   Fe(CO)5
_chemical_formula_sum   'Fe4 C20 O20'
_cell_volume   728.68932866
_cell_formula_units_Z   4
loop_
 _symmetry_equiv_pos_site_id
 _symmetry_equiv_pos_as_xyz
  1  'x, y, z'
  2  '-x, -y, -z'
  3  '-x, y, -z+1/2'
  4  'x, -y, z+1/2'
  5  'x+1/2, y+1/2, z'
  6  '-x+1/2, -y+1/2, -z'
  7  '-x+1/2, y+1/2, -z+1/2'
  8  'x+1/2, -y+1/2, z+1/2'
loop_
 _atom_type_symbol
 _atom_type_oxidation_number
  Fe2+  2.0
  C+  1.0
  C2+  2.0
  O2-  -2.0
loop_
 _atom_site_type_symbol
 _atom_site_label
 _atom_site_symmetry_multiplicity
 _atom_site_fract_x
 _atom_site_fract_y
 _atom_site_fract_z
 _atom_site_occupancy
  Fe2+  Fe0  4  0.00000000  0.16686400  0.25000000  1
  C+  C1  8  0.08226100  0.30249700  0.41180200  1
  C2+  C2  8  0.12887250  0.16414450  0.18318200  1
  C2+  C3  4  0.00000000  0.09543300  0.75000000  1
  O2-  O4  8  0.13554050  0.39119450  0.51602200  1
  O2-  O5  8  0.21035250  0.16081450  0.14062500  1
  O2-  O6  4  0.00000000  0.26500600  0.75000000  1
