# generated using pymatgen
data_LiNiO2
_symmetry_space_group_name_H-M   'P 1'
_cell_length_a   2.90552593
_cell_length_b   2.90553053
_cell_length_c   5.08588921
_cell_angle_alpha   73.38274598
_cell_angle_beta   73.38261458
_cell_angle_gamma   59.99161558
_symmetry_Int_Tables_number   1
_chemical_formula_structural   LiNiO2
_chemical_formula_sum   'Li1 Ni1 O2'
_cell_volume   35.09467760
_cell_formula_units_Z   1
loop_
 _symmetry_equiv_pos_site_id
 _symmetry_equiv_pos_as_xyz
  1  'x, y, z'
loop_
 _atom_site_type_symbol
 _atom_site_label
 _atom_site_symmetry_multiplicity
 _atom_site_fract_x
 _atom_site_fract_y
 _atom_site_fract_z
 _atom_site_occupancy
  Li  Li0  1  0.50000300  0.50000300  0.49999200  1
  Ni  Ni1  1  0.99999900  0.99999900  0.00000200  1
  O  O2  1  0.25781200  0.25781300  0.22673200  1
  O  O3  1  0.74218600  0.74218500  0.77327400  1
