# generated using pymatgen
data_MgCu2
_symmetry_space_group_name_H-M   'P 1'
_cell_length_a   7.01898703
_cell_length_b   7.01898703
_cell_length_c   7.01898703
_cell_angle_alpha   90.00000000
_cell_angle_beta   90.00000000
_cell_angle_gamma   90.00000000
_symmetry_Int_Tables_number   1
_chemical_formula_structural   MgCu2
_chemical_formula_sum   'Mg8 Cu16'
_cell_volume   345.798671594
_cell_formula_units_Z   8
loop_
 _symmetry_equiv_pos_site_id
 _symmetry_equiv_pos_as_xyz
  1  'x, y, z'
loop_
 _atom_site_type_symbol
 _atom_site_label
 _atom_site_symmetry_multiplicity
 _atom_site_fract_x
 _atom_site_fract_y
 _atom_site_fract_z
 _atom_site_occupancy
  Mg  Mg1  1  0.750000  0.750000  0.250000  1
  Mg  Mg2  1  0.000000  0.000000  0.000000  1
  Mg  Mg3  1  0.750000  0.250000  0.750000  1
  Mg  Mg4  1  0.000000  0.500000  0.500000  1
  Mg  Mg5  1  0.250000  0.750000  0.750000  1
  Mg  Mg6  1  0.500000  0.000000  0.500000  1
  Mg  Mg7  1  0.250000  0.250000  0.250000  1
  Mg  Mg8  1  0.500000  0.500000  0.000000  1
  Cu  Cu9  1  0.125000  0.625000  0.125000  1
  Cu  Cu10  1  0.125000  0.375000  0.875000  1
  Cu  Cu11  1  0.875000  0.625000  0.875000  1
  Cu  Cu12  1  0.875000  0.375000  0.125000  1
  Cu  Cu13  1  0.125000  0.125000  0.625000  1
  Cu  Cu14  1  0.125000  0.875000  0.375000  1
  Cu  Cu15  1  0.875000  0.125000  0.375000  1
  Cu  Cu16  1  0.875000  0.875000  0.625000  1
  Cu  Cu17  1  0.625000  0.625000  0.625000  1
  Cu  Cu18  1  0.625000  0.375000  0.375000  1
  Cu  Cu19  1  0.375000  0.625000  0.375000  1
  Cu  Cu20  1  0.375000  0.375000  0.625000  1
  Cu  Cu21  1  0.625000  0.125000  0.125000  1
  Cu  Cu22  1  0.625000  0.875000  0.875000  1
  Cu  Cu23  1  0.375000  0.125000  0.875000  1
  Cu  Cu24  1  0.375000  0.875000  0.125000  1
