# generated using pymatgen
data_MgZn2
_symmetry_space_group_name_H-M   'P 1'
_cell_length_a   5.25128402
_cell_length_b   5.25128402
_cell_length_c   8.44523166
_cell_angle_alpha   90.00000000
_cell_angle_beta   90.00000000
_cell_angle_gamma   120.00000000
_symmetry_Int_Tables_number   1
_chemical_formula_structural   MgZn2
_chemical_formula_sum   'Mg4 Zn8'
_cell_volume   201.68482168
_cell_formula_units_Z   4
loop_
 _symmetry_equiv_pos_site_id
 _symmetry_equiv_pos_as_xyz
  1  'x, y, z'
loop_
 _atom_site_type_symbol
 _atom_site_label
 _atom_site_symmetry_multiplicity
 _atom_site_fract_x
 _atom_site_fract_y
 _atom_site_fract_z
 _atom_site_occupancy
  Mg  Mg1  1  0.333333  0.666667  0.062418  1
  Mg  Mg2  1  0.666667  0.333333  0.562418  1
  Mg  Mg3  1  0.666667  0.333333  0.937582  1
  Mg  Mg4  1  0.333333  0.666667  0.437582  1
  Zn  Zn5  1  0.000000  0.000000  0.000000  1
  Zn  Zn6  1  0.000000  0.000000  0.500000  1
  Zn  Zn7  1  0.170361  0.340722  0.750000  1
  Zn  Zn8  1  0.829639  0.170361  0.250000  1
  Zn  Zn9  1  0.340722  0.170361  0.250000  1
  Zn  Zn10  1  0.659278  0.829639  0.750000  1
  Zn  Zn11  1  0.170361  0.829639  0.750000  1
  Zn  Zn12  1  0.829639  0.659278  0.250000  1
